<?xml version="1.0" encoding="UTF-8"?>

<!-- generated on 2021-10-13 15:17:27 by Eclipse SUMO netedit Version 1.10.0
<configuration xmlns:xsi="http://www.w3.org/2001/XMLSchema-instance" xsi:noNamespaceSchemaLocation="http://sumo.dlr.de/xsd/netconvertConfiguration.xsd">

    <input>
        <sumo-net-file value="C:\Users\tsans\Documents\drl3\sumotest.net.xml"/>
    </input>

    <output>
        <output-file value="C:\Users\tsans\Documents\drl3\sumotest.net.xml"/>
    </output>

    <processing>
        <geometry.min-radius.fix.railways value="false"/>
        <geometry.max-grade.fix value="false"/>
        <offset.disable-normalization value="true"/>
        <lefthand value="false"/>
    </processing>

    <junctions>
        <no-turnarounds value="true"/>
        <junctions.corner-detail value="5"/>
        <junctions.limit-turn-speed value="5.5"/>
        <rectangular-lane-cut value="false"/>
    </junctions>

    <pedestrian>
        <walkingareas value="false"/>
    </pedestrian>

    <report>
        <aggregate-warnings value="5"/>
    </report>

</configuration>
-->

<net version="1.9" junctionCornerDetail="5" limitTurnSpeed="5.50" xmlns:xsi="http://www.w3.org/2001/XMLSchema-instance" xsi:noNamespaceSchemaLocation="http://sumo.dlr.de/xsd/net_file.xsd">

    <location netOffset="0.00,600.00" convBoundary="0.00,0.00,600.00,600.00" origBoundary="0.00,-600.00,600.00,0.00" projParameter="!"/>

    <edge id=":1_0" function="internal">
        <lane id=":1_0_0" index="0" speed="3.65" length="4.67" shape="301.60,600.00 300.80,601.20 300.00,601.60 299.20,601.20 298.40,600.00"/>
    </edge>
    <edge id=":2_0" function="internal">
        <lane id=":2_0_0" index="0" speed="3.65" length="4.67" shape="600.00,298.40 601.20,299.20 601.60,300.00 601.20,300.80 600.00,301.60"/>
    </edge>
    <edge id=":3_0" function="internal">
        <lane id=":3_0_0" index="0" speed="3.65" length="4.67" shape="298.40,0.00 299.20,-1.20 300.00,-1.60 300.80,-1.20 301.60,0.00"/>
    </edge>
    <edge id=":4_0" function="internal">
        <lane id=":4_0_0" index="0" speed="3.65" length="4.67" shape="0.00,301.60 -1.20,300.80 -1.60,300.00 -1.20,299.20 0.00,298.40"/>
    </edge>
    <edge id=":5_0" function="internal">
        <lane id=":5_0_0" index="0" speed="14.00" length="20.80" shape="295.20,310.40 295.20,289.60"/>
        <lane id=":5_0_1" index="1" speed="14.00" length="20.80" shape="298.40,310.40 298.40,289.60"/>
    </edge>
    <edge id=":5_2" function="internal">
        <lane id=":5_2_0" index="0" speed="14.00" length="20.80" shape="310.40,304.80 289.60,304.80"/>
        <lane id=":5_2_1" index="1" speed="14.00" length="20.80" shape="310.40,301.60 289.60,301.60"/>
    </edge>
    <edge id=":5_4" function="internal">
        <lane id=":5_4_0" index="0" speed="14.00" length="20.80" shape="304.80,289.60 304.80,310.40"/>
        <lane id=":5_4_1" index="1" speed="14.00" length="20.80" shape="301.60,289.60 301.60,310.40"/>
    </edge>
    <edge id=":5_6" function="internal">
        <lane id=":5_6_0" index="0" speed="14.00" length="20.80" shape="289.60,295.20 310.40,295.20"/>
        <lane id=":5_6_1" index="1" speed="14.00" length="20.80" shape="289.60,298.40 310.40,298.40"/>
    </edge>

    <edge id="e15" from="1" to="5" priority="2">
        <lane id="e15_0" index="0" speed="14.00" length="289.60" shape="295.20,600.00 295.20,310.40"/>
        <lane id="e15_1" index="1" speed="14.00" length="289.60" shape="298.40,600.00 298.40,310.40"/>
    </edge>
    <edge id="e25" from="2" to="5" priority="2">
        <lane id="e25_0" index="0" speed="14.00" length="289.60" shape="600.00,304.80 310.40,304.80"/>
        <lane id="e25_1" index="1" speed="14.00" length="289.60" shape="600.00,301.60 310.40,301.60"/>
    </edge>
    <edge id="e35" from="3" to="5" priority="2">
        <lane id="e35_0" index="0" speed="14.00" length="289.60" shape="304.80,0.00 304.80,289.60"/>
        <lane id="e35_1" index="1" speed="14.00" length="289.60" shape="301.60,0.00 301.60,289.60"/>
    </edge>
    <edge id="e45" from="4" to="5" priority="2">
        <lane id="e45_0" index="0" speed="14.00" length="289.60" shape="0.00,295.20 289.60,295.20"/>
        <lane id="e45_1" index="1" speed="14.00" length="289.60" shape="0.00,298.40 289.60,298.40"/>
    </edge>
    <edge id="e51" from="5" to="1" priority="2">
        <lane id="e51_0" index="0" speed="14.00" length="289.60" shape="304.80,310.40 304.80,600.00"/>
        <lane id="e51_1" index="1" speed="14.00" length="289.60" shape="301.60,310.40 301.60,600.00"/>
    </edge>
    <edge id="e52" from="5" to="2" priority="2">
        <lane id="e52_0" index="0" speed="14.00" length="289.60" shape="310.40,295.20 600.00,295.20"/>
        <lane id="e52_1" index="1" speed="14.00" length="289.60" shape="310.40,298.40 600.00,298.40"/>
    </edge>
    <edge id="e53" from="5" to="3" priority="2">
        <lane id="e53_0" index="0" speed="14.00" length="289.60" shape="295.20,289.60 295.20,0.00"/>
        <lane id="e53_1" index="1" speed="14.00" length="289.60" shape="298.40,289.60 298.40,0.00"/>
    </edge>
    <edge id="e54" from="5" to="4" priority="2">
        <lane id="e54_0" index="0" speed="14.00" length="289.60" shape="289.60,304.80 0.00,304.80"/>
        <lane id="e54_1" index="1" speed="14.00" length="289.60" shape="289.60,301.60 0.00,301.60"/>
    </edge>

    <tlLogic id="5" type="static" programID="0" offset="0">
        <phase duration="42" state="GGrrGGrr"/>
        <phase duration="3"  state="yyrryyrr"/>
        <phase duration="42" state="rrGGrrGG"/>
        <phase duration="3"  state="rryyrryy"/>
    </tlLogic>

    <junction id="1" type="priority" x="300.00" y="600.00" incLanes="e51_0 e51_1" intLanes=":1_0_0" shape="300.00,600.00 306.40,600.00 300.00,600.00">
        <request index="0" response="0" foes="0" cont="0"/>
    </junction>
    <junction id="2" type="priority" x="600.00" y="300.00" incLanes="e52_0 e52_1" intLanes=":2_0_0" shape="600.00,300.00 600.00,293.60 600.00,300.00">
        <request index="0" response="0" foes="0" cont="0"/>
    </junction>
    <junction id="3" type="priority" x="300.00" y="0.00" incLanes="e53_0 e53_1" intLanes=":3_0_0" shape="300.00,0.00 293.60,0.00 300.00,0.00">
        <request index="0" response="0" foes="0" cont="0"/>
    </junction>
    <junction id="4" type="priority" x="0.00" y="300.00" incLanes="e54_0 e54_1" intLanes=":4_0_0" shape="0.00,300.00 0.00,306.40 0.00,300.00">
        <request index="0" response="0" foes="0" cont="0"/>
    </junction>
    <junction id="5" type="traffic_light" x="300.00" y="300.00" incLanes="e15_0 e15_1 e25_0 e25_1 e35_0 e35_1 e45_0 e45_1" intLanes=":5_0_0 :5_0_1 :5_2_0 :5_2_1 :5_4_0 :5_4_1 :5_6_0 :5_6_1" shape="293.60,310.40 306.40,310.40 306.84,308.18 307.40,307.40 308.18,306.84 309.18,306.51 310.40,306.40 310.40,293.60 308.18,293.16 307.40,292.60 306.84,291.82 306.51,290.82 306.40,289.60 293.60,289.60 293.16,291.82 292.60,292.60 291.82,293.16 290.82,293.49 289.60,293.60 289.60,306.40 291.82,306.84 292.60,307.40 293.16,308.18 293.49,309.18">
        <request index="0" response="00000000" foes="11001100" cont="0"/>
        <request index="1" response="00000000" foes="11001100" cont="0"/>
        <request index="2" response="00110011" foes="00110011" cont="0"/>
        <request index="3" response="00110011" foes="00110011" cont="0"/>
        <request index="4" response="00000000" foes="11001100" cont="0"/>
        <request index="5" response="00000000" foes="11001100" cont="0"/>
        <request index="6" response="00110011" foes="00110011" cont="0"/>
        <request index="7" response="00110011" foes="00110011" cont="0"/>
    </junction>

    <connection from="e15" to="e53" fromLane="0" toLane="0" via=":5_0_0" tl="5" linkIndex="0" dir="s" state="O"/>
    <connection from="e15" to="e53" fromLane="1" toLane="1" via=":5_0_1" tl="5" linkIndex="1" dir="s" state="O"/>
    <connection from="e25" to="e54" fromLane="0" toLane="0" via=":5_2_0" tl="5" linkIndex="2" dir="s" state="o"/>
    <connection from="e25" to="e54" fromLane="1" toLane="1" via=":5_2_1" tl="5" linkIndex="3" dir="s" state="o"/>
    <connection from="e35" to="e51" fromLane="0" toLane="0" via=":5_4_0" tl="5" linkIndex="4" dir="s" state="O"/>
    <connection from="e35" to="e51" fromLane="1" toLane="1" via=":5_4_1" tl="5" linkIndex="5" dir="s" state="O"/>
    <connection from="e45" to="e52" fromLane="0" toLane="0" via=":5_6_0" tl="5" linkIndex="6" dir="s" state="o"/>
    <connection from="e45" to="e52" fromLane="1" toLane="1" via=":5_6_1" tl="5" linkIndex="7" dir="s" state="o"/>
    <connection from="e51" to="e15" fromLane="1" toLane="1" via=":1_0_0" dir="t" state="M"/>
    <connection from="e52" to="e25" fromLane="1" toLane="1" via=":2_0_0" dir="t" state="M"/>
    <connection from="e53" to="e35" fromLane="1" toLane="1" via=":3_0_0" dir="t" state="M"/>
    <connection from="e54" to="e45" fromLane="1" toLane="1" via=":4_0_0" dir="t" state="M"/>

    <connection from=":1_0" to="e15" fromLane="0" toLane="1" dir="t" state="M"/>
    <connection from=":2_0" to="e25" fromLane="0" toLane="1" dir="t" state="M"/>
    <connection from=":3_0" to="e35" fromLane="0" toLane="1" dir="t" state="M"/>
    <connection from=":4_0" to="e45" fromLane="0" toLane="1" dir="t" state="M"/>
    <connection from=":5_0" to="e53" fromLane="0" toLane="0" dir="s" state="M"/>
    <connection from=":5_0" to="e53" fromLane="1" toLane="1" dir="s" state="M"/>
    <connection from=":5_2" to="e54" fromLane="0" toLane="0" dir="s" state="M"/>
    <connection from=":5_2" to="e54" fromLane="1" toLane="1" dir="s" state="M"/>
    <connection from=":5_4" to="e51" fromLane="0" toLane="0" dir="s" state="M"/>
    <connection from=":5_4" to="e51" fromLane="1" toLane="1" dir="s" state="M"/>
    <connection from=":5_6" to="e52" fromLane="0" toLane="0" dir="s" state="M"/>
    <connection from=":5_6" to="e52" fromLane="1" toLane="1" dir="s" state="M"/>

</net>
