<nodes>
<node id="1" x="300" y="0" type="priority"/>
<node id="5" x="300" y="-300" type="priority"/>
<node id="3" x="300" y="-600" type="priority"/>
<node id="2" x="600" y="-300" type="priority"/>
<node id="4" x="0" y="-300" type="priority"/>
</nodes>