<nodes>
<node id="N" x="0" y="750" type="priority"/>
<node id="TL" x="0" y="0" type="priority"/>
<node id="S" x="0" y="-750" type="priority"/>
<node id="E" x="750" y="0" type="priority"/>
<node id="W" x="-750" y="0" type="priority"/>
</nodes>