<?xml version="1.0" encoding="UTF-8"?>

<!-- generated on 2021-10-14 14:42:14 by Eclipse SUMO netedit Version 1.10.0
<configuration xmlns:xsi="http://www.w3.org/2001/XMLSchema-instance" xsi:noNamespaceSchemaLocation="http://sumo.dlr.de/xsd/netconvertConfiguration.xsd">

    <input>
        <sumo-net-file value="C:\Users\tsans\Documents\drl3\DQN\intersection\environment.net.xml"/>
    </input>

    <output>
        <output-file value="C:\Users\tsans\Documents\drl3\DQN\intersection\environment.net.xml"/>
    </output>

    <processing>
        <geometry.min-radius.fix.railways value="false"/>
        <geometry.max-grade.fix value="false"/>
        <offset.disable-normalization value="true"/>
        <lefthand value="false"/>
    </processing>

    <junctions>
        <no-turnarounds value="true"/>
        <junctions.corner-detail value="5"/>
        <junctions.limit-turn-speed value="5.5"/>
        <rectangular-lane-cut value="false"/>
    </junctions>

    <pedestrian>
        <walkingareas value="false"/>
    </pedestrian>

    <report>
        <aggregate-warnings value="5"/>
    </report>

</configuration>
-->

<net version="1.9" junctionCornerDetail="5" limitTurnSpeed="5.50" xmlns:xsi="http://www.w3.org/2001/XMLSchema-instance" xsi:noNamespaceSchemaLocation="http://sumo.dlr.de/xsd/net_file.xsd">

    <location netOffset="750.00,750.00" convBoundary="-750.00,-750.00,750.00,750.00" origBoundary="-750.00,-750.00,750.00,750.00" projParameter="!"/>

    <edge id=":TL_0" function="internal">
        <lane id=":TL_0_0" index="0" speed="14.00" length="20.80" shape="-4.80,10.40 -4.80,-10.40"/>
        <lane id=":TL_0_1" index="1" speed="14.00" length="20.80" shape="-1.60,10.40 -1.60,-10.40"/>
    </edge>
    <edge id=":TL_2" function="internal">
        <lane id=":TL_2_0" index="0" speed="14.00" length="20.80" shape="10.40,4.80 -10.40,4.80"/>
        <lane id=":TL_2_1" index="1" speed="14.00" length="20.80" shape="10.40,1.60 -10.40,1.60"/>
    </edge>
    <edge id=":TL_4" function="internal">
        <lane id=":TL_4_0" index="0" speed="14.00" length="20.80" shape="4.80,-10.40 4.80,10.40"/>
        <lane id=":TL_4_1" index="1" speed="14.00" length="20.80" shape="1.60,-10.40 1.60,10.40"/>
    </edge>
    <edge id=":TL_6" function="internal">
        <lane id=":TL_6_0" index="0" speed="14.00" length="20.80" shape="-10.40,-4.80 10.40,-4.80"/>
        <lane id=":TL_6_1" index="1" speed="14.00" length="20.80" shape="-10.40,-1.60 10.40,-1.60"/>
    </edge>

    <edge id="E2TL" from="E" to="TL" priority="-1">
        <lane id="E2TL_0" index="0" speed="14.00" length="739.60" shape="750.00,4.80 10.40,4.80"/>
        <lane id="E2TL_1" index="1" speed="14.00" length="739.60" shape="750.00,1.60 10.40,1.60"/>
    </edge>
    <edge id="N2TL" from="N" to="TL" priority="-1">
        <lane id="N2TL_0" index="0" speed="14.00" length="739.60" shape="-4.80,750.00 -4.80,10.40"/>
        <lane id="N2TL_1" index="1" speed="14.00" length="739.60" shape="-1.60,750.00 -1.60,10.40"/>
    </edge>
    <edge id="S2TL" from="S" to="TL" priority="-1">
        <lane id="S2TL_0" index="0" speed="14.00" length="739.60" shape="4.80,-750.00 4.80,-10.40"/>
        <lane id="S2TL_1" index="1" speed="14.00" length="739.60" shape="1.60,-750.00 1.60,-10.40"/>
    </edge>
    <edge id="TL2E" from="TL" to="E" priority="-1">
        <lane id="TL2E_0" index="0" speed="14.00" length="739.60" shape="10.40,-4.80 750.00,-4.80"/>
        <lane id="TL2E_1" index="1" speed="14.00" length="739.60" shape="10.40,-1.60 750.00,-1.60"/>
    </edge>
    <edge id="TL2N" from="TL" to="N" priority="-1">
        <lane id="TL2N_0" index="0" speed="14.00" length="739.60" shape="4.80,10.40 4.80,750.00"/>
        <lane id="TL2N_1" index="1" speed="14.00" length="739.60" shape="1.60,10.40 1.60,750.00"/>
    </edge>
    <edge id="TL2S" from="TL" to="S" priority="-1">
        <lane id="TL2S_0" index="0" speed="14.00" length="739.60" shape="-4.80,-10.40 -4.80,-750.00"/>
        <lane id="TL2S_1" index="1" speed="14.00" length="739.60" shape="-1.60,-10.40 -1.60,-750.00"/>
    </edge>
    <edge id="TL2W" from="TL" to="W" priority="-1">
        <lane id="TL2W_0" index="0" speed="14.00" length="739.60" shape="-10.40,4.80 -750.00,4.80"/>
        <lane id="TL2W_1" index="1" speed="14.00" length="739.60" shape="-10.40,1.60 -750.00,1.60"/>
    </edge>
    <edge id="W2TL" from="W" to="TL" priority="-1">
        <lane id="W2TL_0" index="0" speed="14.00" length="739.60" shape="-750.00,-4.80 -10.40,-4.80"/>
        <lane id="W2TL_1" index="1" speed="14.00" length="739.60" shape="-750.00,-1.60 -10.40,-1.60"/>
    </edge>

    <tlLogic id="TL" type="static" programID="0" offset="0">
        <phase duration="42" state="GGrrGGrr"/>
        <phase duration="3"  state="yyrryyrr"/>
        <phase duration="42" state="rrGGrrGG"/>
        <phase duration="3"  state="rryyrryy"/>
    </tlLogic>

    <junction id="E" type="dead_end" x="750.00" y="0.00" incLanes="TL2E_0 TL2E_1" intLanes="" shape="750.00,0.00 750.00,-6.40 750.00,0.00"/>
    <junction id="N" type="dead_end" x="0.00" y="750.00" incLanes="TL2N_0 TL2N_1" intLanes="" shape="0.00,750.00 6.40,750.00 0.00,750.00"/>
    <junction id="S" type="dead_end" x="0.00" y="-750.00" incLanes="TL2S_0 TL2S_1" intLanes="" shape="0.00,-750.00 -6.40,-750.00 0.00,-750.00"/>
    <junction id="TL" type="traffic_light" x="0.00" y="0.00" incLanes="N2TL_0 N2TL_1 E2TL_0 E2TL_1 S2TL_0 S2TL_1 W2TL_0 W2TL_1" intLanes=":TL_0_0 :TL_0_1 :TL_2_0 :TL_2_1 :TL_4_0 :TL_4_1 :TL_6_0 :TL_6_1" shape="-6.40,10.40 6.40,10.40 6.84,8.18 7.40,7.40 8.18,6.84 9.18,6.51 10.40,6.40 10.40,-6.40 8.18,-6.84 7.40,-7.40 6.84,-8.18 6.51,-9.18 6.40,-10.40 -6.40,-10.40 -6.84,-8.18 -7.40,-7.40 -8.18,-6.84 -9.18,-6.51 -10.40,-6.40 -10.40,6.40 -8.18,6.84 -7.40,7.40 -6.84,8.18 -6.51,9.18">
        <request index="0" response="00000000" foes="11001100" cont="0"/>
        <request index="1" response="00000000" foes="11001100" cont="0"/>
        <request index="2" response="00110011" foes="00110011" cont="0"/>
        <request index="3" response="00110011" foes="00110011" cont="0"/>
        <request index="4" response="00000000" foes="11001100" cont="0"/>
        <request index="5" response="00000000" foes="11001100" cont="0"/>
        <request index="6" response="00110011" foes="00110011" cont="0"/>
        <request index="7" response="00110011" foes="00110011" cont="0"/>
    </junction>
    <junction id="W" type="dead_end" x="-750.00" y="0.00" incLanes="TL2W_0 TL2W_1" intLanes="" shape="-750.00,0.00 -750.00,6.40 -750.00,0.00"/>

    <connection from="E2TL" to="TL2W" fromLane="0" toLane="0" via=":TL_2_0" tl="TL" linkIndex="2" dir="s" state="o"/>
    <connection from="E2TL" to="TL2W" fromLane="1" toLane="1" via=":TL_2_1" tl="TL" linkIndex="3" dir="s" state="o"/>
    <connection from="N2TL" to="TL2S" fromLane="0" toLane="0" via=":TL_0_0" tl="TL" linkIndex="0" dir="s" state="O"/>
    <connection from="N2TL" to="TL2S" fromLane="1" toLane="1" via=":TL_0_1" tl="TL" linkIndex="1" dir="s" state="O"/>
    <connection from="S2TL" to="TL2N" fromLane="0" toLane="0" via=":TL_4_0" tl="TL" linkIndex="4" dir="s" state="O"/>
    <connection from="S2TL" to="TL2N" fromLane="1" toLane="1" via=":TL_4_1" tl="TL" linkIndex="5" dir="s" state="O"/>
    <connection from="W2TL" to="TL2E" fromLane="0" toLane="0" via=":TL_6_0" tl="TL" linkIndex="6" dir="s" state="o"/>
    <connection from="W2TL" to="TL2E" fromLane="1" toLane="1" via=":TL_6_1" tl="TL" linkIndex="7" dir="s" state="o"/>

    <connection from=":TL_0" to="TL2S" fromLane="0" toLane="0" dir="s" state="M"/>
    <connection from=":TL_0" to="TL2S" fromLane="1" toLane="1" dir="s" state="M"/>
    <connection from=":TL_2" to="TL2W" fromLane="0" toLane="0" dir="s" state="M"/>
    <connection from=":TL_2" to="TL2W" fromLane="1" toLane="1" dir="s" state="M"/>
    <connection from=":TL_4" to="TL2N" fromLane="0" toLane="0" dir="s" state="M"/>
    <connection from=":TL_4" to="TL2N" fromLane="1" toLane="1" dir="s" state="M"/>
    <connection from=":TL_6" to="TL2E" fromLane="0" toLane="0" dir="s" state="M"/>
    <connection from=":TL_6" to="TL2E" fromLane="1" toLane="1" dir="s" state="M"/>

</net>
